scripts/data/pwf/8busfrank.pwf
TITU
Caso do Anderson - P�gina 38                                                    
DOPC IMPR
(Op) E (Op) E (Op) E (Op) E (Op) E (Op) E (Op) E (Op) E (Op) E (Op) E
QLIM L CREM L STEP L NEWT L MOST L MOSG L MOSF L RCVG L RMON L FILE L
CONT L CELO L MFCT L
99999
DCTE
(Mn) ( Val) (Mn) ( Val) (Mn) ( Val) (Mn) ( Val) (Mn) ( Val) (Mn) ( Val) 
BASE   100. DASE   100. TEPA     .1 EXST     .4 TETP     5. TBPA     5.
TLPP     1. TEPR     .1 QLST     .4 TLPR     .1 TLPQ     2. TSBZ    .01
TSBA     5. ASTP    .05 VSTP     5. TLVC     .5 TLTC    .01 TSFR  .1E-7
ZMAX   500. TLPV     .5 VDVM   200. VDVN    40. TUDC   .001 TADC    .01
PGER    30. TPST     .2 VFLD    80. ZMIN   .001 HIST    470 LFIT     10
ACIT     35 LFCV      1 DCIT     10 VSIT     10 LPIT     50 LFLP     10
PDIT     10 LCRT     96 LPRT     60 CSTP     5. ASDC     1.
ICIT   9999 DMAX      5 FDIV     2. ICMN    .05 VART     5. TSTP     33
ICMV     .5 APAS    90. CPAR    70. VAVT     2. VAVF     5. VMVF    15.
VPVT     2. VPVF     5. VPMF    10. VSVF    20. VINF     1. VSUP     1.
TLSI     0. NDIR    20. STTR     5. TRPT   100. STIR     1. BFPO     1.
LFPO     .1                                                            
99999
DBAR
(Num)OETGb(   nome   )Gl( V)( A)( Pg)( Qg)( Qn)( Qm)(Bc  )( Pl)( Ql)( Sh)Are(Vf)M(1)(2)(3)(4)(5)(6)(7)(8)(9)(10
    1 L2 ABus 1         1029 0.0 1.52  3.6-130.130.4                   2.  11000                                 
    2 L1 ABus 2         1030 0.0 12.9  2.5-130.130.4                       11000                               
    3 L0 ABus 3         10000.77 0.0   0.0 0.0 0.0         5.39 1.32       11000                                                                   
    4 L0 BBus 4         10000.77 0.0   0.0 0.0 0.0         5.39 1.32       21000                                                                   
    5 L0 BBus 5         10000.77 5.99  2.5 0.0 0.0        10.39 2.30       21000                                                                   
    6 L1 BBus 6         10000.77 25.9  1.5-130.130.4            5.32   2.  21000    
    7 L2 CBus 5         1000 0.0 25.9 22.5-130.130.4      10.3 15.32       31000                                                                   
    8 L0 CBus 6         10000.77 0.0   0.0 0.0 0.0        50.3 35.32       31000                                                                   
99999
DLIN
(De )d O d(Pa )NcEP ( R% )( X% )(Mvar)(Tap)(Tmn)(Tmx)(Phs)(Bc  )(Cn)(Ce)Ns(Cq)(1)(2)(3)(4)(5)(6)(7)(8)(9)(10
    1         2 1     18.1  11.4            0.95 1.1            237.298.  298.                                                   
    1         3 1     17.1  12.4            0.95 1.1            237.298.  298.                               
    1         3 2D    16.1  13.4            0.95 1.1            237.298.  298.                               
    3         4 1     15.1  14.4       1.05 0.95 1.1  5.0       237.298.  298.                                                                                                         
    4         6 1     14.1  15.4            0.95 1.1            237.298.  298.        
    5         6 1     13.1  16.4            0.95 1.1            237.298.  298.        
    6         7 1     12.1  17.4       0.98 0.95 1.1            237.298.  298.        
    5         8 1     11.1  18.4       1.01 0.95 1.1            237.298.  298.        
    7         8 1     11.1  18.4            0.95 1.1            237.298.  298.   
99999
DCSC
(De ) O  (Pa )NcEPB      (Xmin)(Xmax)( Xv )C ( Vsp) (Ext)Nst(Cn)(Ce)(Cq)(1)(2)(3)(4)(5)(6)(7)(8)(9)(10
   2     3     1          -1.76  -.59 -6.37X  -.637     2   999999999999   
   4     5     1          -1.76  -.59 -6.37X  -.637     4   999999999999   
99999
DBSH
(NFr) O (NTo) Nc C (Vmn (Vmx Bctrl (Qini) T A (Extr
    1       2  1 C 0990 1010    2  9999.0 L       2
(G  O E (U) UOp (Sht )
 1       10   2     5.
FBAN
(NFr) O (NTo) Nc C (Vmn (Vmx Bctrl (Qini) T A (Extr
    5       6  1 C 0990 1010    5  9999.0 L       5
(G  O E (U) UOp (Sht )
 1       10   2     5.
FBAN
(NFr) O (NTo) Nc C (Vmn (Vmx Bctrl (Qini) T A (Extr
    3          1 D 0990 1010    3   11.0  L       3
(G  O E (U) UOp (Sht )
 1       10   2   12.5
FBAN
(NFr) O (NTo) Nc C (Vmn (Vmx Bctrl (Qini) T A (Extr 
    4          1 F 0990 1010    4   11.0  L       4
(G  O E (U) UOp (Sht )
 1       10   2   -7.5
FBAN
(NFr) O (NTo) Nc C (Vmn (Vmx Bctrl (Qini) T A (Extr 
    8          1 F 0990 1010    8   11.0  L       8
(G  O E (U) UOp (Sht )
 1       10   2   -7.5
 1       10   1    7.5
FBAN
99999
DCER
(No ) O Gr Un (Kb ) (Incl) ( Qg)( Qn)( Qm) C E
    1    2  1     6     0.  -10. -50. 100. P L 
99999
DSHL 
(De ) O  (Pa )Nc (Shde)(Shpa) ED EP
    1        1 1     -1.  -2.  L  L
99999
DGBT
(G ( kV)
 A  500.
 B  200.
 C  100.
99999
DGER
(No ) O (Pmn ) (Pmx ) ( Fp) (FpR) (FPn) (Fa) (Fr) (Ag) ( Xq) (Sno)
    7       0. 999999    0.    4.
99999
DCAR
(tp) (no ) C (tp) (no ) C (tp) (no ) C (tp) (no ) O (A) (B) (C) (D) (Vfl)            
99999
DGLT
(G (Vmn) (Vmx) (Vmne (Vmxe
 1    .8   1.2    .8  1.21
 2    .9   1.1    .9  1.11
 3    .9   1.1    .9  1.11
99999
DARE
(Ar    (Xchg)     (      Identificacao da area       ) (Xmin) (Xmax)
  1        0.     *              FURNAS              *               
  2        0.     *            CEMIG GT              * 
  3        0.     *            CEMIG TMJ             * 
99999  
DCTR
(Nf ) O (Nt ) Nc Vmin Vmax C M (Fmin) (Fmax) C ( Vsp) (Ext) Ns
    3       4  1                 -22.    22. P 309.56     3     
99999
FIM